
     RDKit          3D

 16 15  0  0  0  0  0  0  0  0999 V2000
   -1.9574    0.2489    0.3614 C   0  0  0  0  0  0  0  0  0  0  0  0
   -1.0009   -0.8446    0.0319 C   0  0  0  0  0  0  0  0  0  0  0  0
    0.4242   -0.5364    0.3747 C   0  0  0  0  0  0  0  0  0  0  0  0
    0.9687    0.6637   -0.3280 C   0  0  0  0  0  0  0  0  0  0  0  0
    2.3076    0.8146    0.1008 O   0  0  0  0  0  3  0  0  0  0  0  0
   -1.4931    1.1991    0.6514 H   0  0  0  0  0  0  0  0  0  0  0  0
   -2.6259    0.4514   -0.5136 H   0  0  0  0  0  0  0  0  0  0  0  0
   -2.6668   -0.0305    1.1921 H   0  0  0  0  0  0  0  0  0  0  0  0
   -1.2943   -1.7410    0.6343 H   0  0  0  0  0  0  0  0  0  0  0  0
   -1.0399   -1.1828   -1.0273 H   0  0  0  0  0  0  0  0  0  0  0  0
    0.5503   -0.4262    1.4659 H   0  0  0  0  0  0  0  0  0  0  0  0
    1.0349   -1.4168    0.0474 H   0  0  0  0  0  0  0  0  0  0  0  0
    0.4545    1.5998   -0.0864 H   0  0  0  0  0  0  0  0  0  0  0  0
    1.0414    0.5037   -1.4242 H   0  0  0  0  0  0  0  0  0  0  0  0
    2.3787    0.4563    1.0341 H   0  0  0  0  0  0  0  0  0  0  0  0
    2.9180    0.2407   -0.4324 H   0  0  0  0  0  0  0  0  0  0  0  0
  1  2  1  0
  2  3  1  0
  3  4  1  0
  4  5  1  0
  1  6  1  0
  1  7  1  0
  1  8  1  0
  2  9  1  0
  2 10  1  0
  3 11  1  0
  3 12  1  0
  4 13  1  0
  4 14  1  0
  5 15  1  0
  5 16  1  0
M  CHG  1   5   1
M  END

